*HEADING
Written by Materialise Abaqus export filter
** Units: mm

*PART, name=femur

*NODE
	1, 1.095989000e+02, -6.405090000e+01, 5.091553000e+02
	2, 1.090663000e+02, -6.714610000e+01, 5.092138000e+02
	3, 1.126385000e+02, -6.753690000e+01, 5.095721000e+02
	4, 1.060210000e+02, -6.376760000e+01, 5.095808000e+02
	5, 1.127620000e+02, -6.420130000e+01, 5.095828000e+02
	6, 1.046552000e+02, -6.691230000e+01, 5.100392000e+02
	7, 1.088208000e+02, -6.113990000e+01, 5.100711000e+02
	8, 1.098060000e+02, -7.032840000e+01, 5.101925000e+02
	9, 1.042147000e+02, -8.843910000e+01, 5.102790000e+02
	10, 1.068866000e+02, -6.964690000e+01, 5.102827000e+02
	11, 1.120879000e+02, -6.141590000e+01, 5.103205000e+02
	12, 1.069826000e+02, -8.778390000e+01, 5.103440000e+02
	13, 1.061335000e+02, -9.079730000e+01, 5.104201000e+02
	14, 1.150443000e+02, -6.845520000e+01, 5.105559000e+02
	15, 1.046055000e+02, -8.536660000e+01, 5.105793000e+02
	16, 1.092942000e+02, -8.886930000e+01, 5.106594000e+02
	17, 1.157899000e+02, -6.507590000e+01, 5.106940000e+02
	18, 1.126997000e+02, -7.101270000e+01, 5.107844000e+02
	19, 1.023296000e+02, -6.414220000e+01, 5.109665000e+02
	20, 1.081580000e+02, -8.521780000e+01, 5.110144000e+02
** ... 21256 like lines cut
*ELEMENT, TYPE=C3D4
	1, 13502, 13503, 9706, 13504
	2, 6787, 7692, 6786, 7694
	3, 6804, 18306, 3477, 3478
	4, 10315, 18313, 19148, 19149
	5, 6787, 17987, 12796, 9636
	6, 7372, 15281, 10317, 19149
	7, 6804, 18306, 4762, 20165
	8, 7691, 19150, 7692, 7694
	9, 9706, 13504, 13503, 17648
	10, 12796, 15163, 6787, 9636
	11, 19148, 18313, 10315, 20566
	12, 15204, 4762, 13503, 18306
	13, 15204, 13504, 9705, 17648
	14, 15204, 18306, 13503, 17648
	15, 7693, 19862, 7691, 7694
	16, 5239, 7374, 5238, 19149
	17, 3476, 9799, 13297, 11572
	18, 13202, 17218, 13710, 18039
	19, 17987, 19862, 17986, 9636
	20, 13503, 13504, 15204, 17648
** ... 126187 like lines cut
*SURFACE, TYPE=ELEMENT, NAME=Surface
73192,S1
61794,S1
66334,S1
68436,S1
54713,S1
76698,S1
88698,S1
39211,S1
57831,S1
77189,S1
99077,S2
90543,S1
45390,S1
58339,S1
94545,S1
88841,S1
53871,S1
94249,S1
83581,S1
73190,S1
** ... 5490 like lines cut
*SURFACE, TYPE=ELEMENT, NAME=base
76224,S1
60471,S1
95050,S1
85323,S1
89734,S1
81692,S1
37795,S1
39027,S1
50396,S1
78855,S1
65772,S1
75795,S1
65269,S1
68349,S1
*NSET, NSET=NS_Surface
1,2,3,4,5,6,7,8,9,10,11,12,13,14,15,16
17,18,19,20,21,22,23,24,25,26,27,28,29,30,31,32
33,34,35,36,37,38,39,40,41,42,43,44,45,46,47,48
49,50,51,52,53,54,55,56,57,58,59,60,61,62,63,64
65,66,67,68,69,70,71,72,73,74,75,76,77,78,79,80
81,82,83,84,85,86,87,88,89,90,91,92,93,94,95,96
97,98,99,100,101,102,103,104,105,106,107,108,109,110,111,112
113,114,115,116,117,118,119,120,121,122,123,124,125,126,127,128
129,130,131,132,133,134,135,136,137,138,139,140,141,142,143,144
145,146,147,148,149,150,151,152,153,154,155,156,157,158,159,160
161,162,163,164,165,166,167,168,169,170,171,172,173,174,175,176
177,178,179,180,181,182,183,184,185,186,187,188,189,190,191,192
193,194,195,196,197,198,200,201,202,203,204,205,206,207,208,209
210,211,212,213,214,216,217,218,219,220,221,222,223,224,225,226
227,228,229,230,231,232,233,234,235,236,237,238,239,240,241,242
243,244,245,246,247,248,249,250,251,252,253,254,255,256,257,258
259,260,261,262,263,264,265,266,267,268,269,270,271,272,273,274
275,276,277,278,279,280,281,282,283,284,285,286,287,288,289,290
291,292,293,294,295,296,297,298,299,300,301,302,303,304,305,306
307,308,309,310,311,312,313,314,315,316,317,318,319,320,321,322
** ... 153 like lines cut
*NSET, NSET=NS_base
151,174,181,189,195,199,215,219,226,232,242,251,253,258,270,280
293,323
*ELSET, ELSET=ES_Volume_0_MAT0, GENERATE
1,56,1
*SOLID SECTION, ELSET=ES_Volume_0_MAT0, MATERIAL=femur_material0
*ELSET, ELSET=ES_Volume_0_MAT1, GENERATE
57,2297,1
*SOLID SECTION, ELSET=ES_Volume_0_MAT1, MATERIAL=femur_material1
*ELSET, ELSET=ES_Volume_0_MAT2, GENERATE
2298,28137,1
*SOLID SECTION, ELSET=ES_Volume_0_MAT2, MATERIAL=femur_material2
*ELSET, ELSET=ES_Volume_0_MAT3, GENERATE
28138,39046,1
*SOLID SECTION, ELSET=ES_Volume_0_MAT3, MATERIAL=femur_material3
*ELSET, ELSET=ES_Volume_0_MAT4, GENERATE
39047,52047,1
*SOLID SECTION, ELSET=ES_Volume_0_MAT4, MATERIAL=femur_material4
*ELSET, ELSET=ES_Volume_0_MAT5, GENERATE
52048,64754,1
*SOLID SECTION, ELSET=ES_Volume_0_MAT5, MATERIAL=femur_material5
*ELSET, ELSET=ES_Volume_0_MAT6, GENERATE
64755,75913,1
*SOLID SECTION, ELSET=ES_Volume_0_MAT6, MATERIAL=femur_material6
*ELSET, ELSET=ES_Volume_0_MAT7, GENERATE
75914,85256,1
*SOLID SECTION, ELSET=ES_Volume_0_MAT7, MATERIAL=femur_material7
*ELSET, ELSET=ES_Volume_0_MAT8, GENERATE
85257,93398,1
*SOLID SECTION, ELSET=ES_Volume_0_MAT8, MATERIAL=femur_material8
*ELSET, ELSET=ES_Volume_0_MAT9, GENERATE
93399,99965,1
*SOLID SECTION, ELSET=ES_Volume_0_MAT9, MATERIAL=femur_material9
*ELSET, ELSET=ES_Volume_0_MAT10, GENERATE
99966,105900,1
*SOLID SECTION, ELSET=ES_Volume_0_MAT10, MATERIAL=femur_material10
*ELSET, ELSET=ES_Volume_0_MAT11, GENERATE
105901,111357,1
*SOLID SECTION, ELSET=ES_Volume_0_MAT11, MATERIAL=femur_material11
*ELSET, ELSET=ES_Volume_0_MAT12, GENERATE
111358,115813,1
*SOLID SECTION, ELSET=ES_Volume_0_MAT12, MATERIAL=femur_material12
*ELSET, ELSET=ES_Volume_0_MAT13, GENERATE
115814,118958,1
*SOLID SECTION, ELSET=ES_Volume_0_MAT13, MATERIAL=femur_material13
*ELSET, ELSET=ES_Volume_0_MAT14, GENERATE
118959,121247,1
*SOLID SECTION, ELSET=ES_Volume_0_MAT14, MATERIAL=femur_material14
*ELSET, ELSET=ES_Volume_0_MAT15, GENERATE
121248,122658,1
*SOLID SECTION, ELSET=ES_Volume_0_MAT15, MATERIAL=femur_material15
*ELSET, ELSET=ES_Volume_0_MAT16, GENERATE
122659,123543,1
*SOLID SECTION, ELSET=ES_Volume_0_MAT16, MATERIAL=femur_material16
*ELSET, ELSET=ES_Volume_0_MAT17, GENERATE
123544,124032,1
*SOLID SECTION, ELSET=ES_Volume_0_MAT17, MATERIAL=femur_material17
*ELSET, ELSET=ES_Volume_0_MAT18, GENERATE
124033,124200,1
*SOLID SECTION, ELSET=ES_Volume_0_MAT18, MATERIAL=femur_material18
*ELSET, ELSET=ES_Volume_0_MAT19, GENERATE
124201,124281,1
*SOLID SECTION, ELSET=ES_Volume_0_MAT19, MATERIAL=femur_material19
** ... 30 like lines cut
*END PART

** ASSEMBLY
**
*Assembly, name=Assembly
**
*Instance, name=femur_1, part=femur
*End Instance
**
*End Assembly

*MATERIAL, NAME=femur_material0
*DENSITY
0.01
*ELASTIC
11, 0.3
*MATERIAL, NAME=femur_material1
*DENSITY
0.01
*ELASTIC
11, 0.3
*MATERIAL, NAME=femur_material2
*DENSITY
0.01
*ELASTIC
11, 0.3
*MATERIAL, NAME=femur_material3
*DENSITY
0.127141
*ELASTIC
11.6143, 0.3
*MATERIAL, NAME=femur_material4
*DENSITY
0.296126
*ELASTIC
96.1535, 0.3
*MATERIAL, NAME=femur_material5
*DENSITY
0.46511
*ELASTIC
297.279, 0.3
*MATERIAL, NAME=femur_material6
*DENSITY
0.634094
*ELASTIC
645.148, 0.3
*MATERIAL, NAME=femur_material7
*DENSITY
0.803078
*ELASTIC
1164.58, 0.3
*MATERIAL, NAME=femur_material8
*DENSITY
0.972063
*ELASTIC
1877.2, 0.3
*MATERIAL, NAME=femur_material9
*DENSITY
1.14105
*ELASTIC
2802.42, 0.3
*MATERIAL, NAME=femur_material10
*DENSITY
1.31003
*ELASTIC
3958.03, 0.3
*MATERIAL, NAME=femur_material11
*DENSITY
1.47902
*ELASTIC
5360.52, 0.3
*MATERIAL, NAME=femur_material12
*DENSITY
1.648
*ELASTIC
7025.35, 0.3
*MATERIAL, NAME=femur_material13
*DENSITY
1.81698
*ELASTIC
8967.11, 0.3
*MATERIAL, NAME=femur_material14
*DENSITY
1.98597
*ELASTIC
11199.7, 0.3
*MATERIAL, NAME=femur_material15
*DENSITY
2.15495
*ELASTIC
13736.3, 0.3
*MATERIAL, NAME=femur_material16
*DENSITY
2.32394
*ELASTIC
16589.6, 0.3
*MATERIAL, NAME=femur_material17
*DENSITY
2.49292
*ELASTIC
19771.8, 0.3
*MATERIAL, NAME=femur_material18
*DENSITY
2.66191
*ELASTIC
23294.7, 0.3
*MATERIAL, NAME=femur_material19
*DENSITY
2.83089
*ELASTIC
27169.5, 0.3
*MATERIAL, NAME=femur_material20
*DENSITY
2.99987
*ELASTIC
31407.4, 0.3
*MATERIAL, NAME=femur_material21
*DENSITY
3.16886
*ELASTIC
36019, 0.3
*MATERIAL, NAME=femur_material22
*DENSITY
3.33784
*ELASTIC
41014.7, 0.3
*MATERIAL, NAME=femur_material23
*DENSITY
3.50683
*ELASTIC
46404.6, 0.3
*MATERIAL, NAME=femur_material24
*DENSITY
3.67581
*ELASTIC
52198.5, 0.3
*MATERIAL, NAME=femur_material25
*DENSITY
3.84479
*ELASTIC
58406.1, 0.3
*MATERIAL, NAME=femur_material26
*DENSITY
4.01378
*ELASTIC
65036.7, 0.3
*MATERIAL, NAME=femur_material27
*DENSITY
4.18276
*ELASTIC
72099.7, 0.3
*MATERIAL, NAME=femur_material28
*DENSITY
4.35175
*ELASTIC
79603.9, 0.3
*MATERIAL, NAME=femur_material29
*DENSITY
4.52073
*ELASTIC
87558.2, 0.3