*Heading
** Job name: Job-1 Model name: Model-1
** Generated by: Abaqus/CAE 2022
*Preprint, echo=NO, model=NO, history=NO, contact=NO
** ----------------------------------------------------------------
** 
** PART INSTANCE: Part-1-1
** 
*System
      -39.75,      -19.75,          0.,      -38.75,      -19.75,          0.
*Node
      1,    33.013752,   23.6095524
      2,   32.3809052,   23.2079372
      3,   32.0613441,   22.8216534
      4,   31.7854252,   22.1247635
      5,   31.7854252,   21.3752365
      6,   32.0613441,   20.6783466
      7,   32.3809052,   20.2920628
      8,    33.013752,   19.8904476
      9,        33.75,        23.75
     10,        33.75,        19.75
     11,        34.25,        19.75
     12,        34.75,        19.75
     13,        35.25,        19.75
     14,        35.75,        19.75
     15,        36.25,        19.75
     16,        36.75,        19.75
     17,        37.25,        19.75
     18,        37.75,        19.75
     19,        38.25,        19.75
     20,        38.75,        19.75
** ... 1472 like lines cut
*Element, type=CPS4R
   1,  335,    8,  609,  585
   2,  585,  612,  334,  335
   3,  152,  712,  610,  600
   4,  331,  617,  592,    5
   5,  612,  600,    7,  334
   6,  604,  329,  330,  603
   7,  434,  469,  448,   99
   8,  824, 1315, 1298,  449
   9,  460,  433,   97, 1299
  10,  711,  460, 1299,  649
  11,  132,  639,  584,  131
  12,  584,    2,  326,  131
  13, 1287,    3,  327,  614
  14,  449,  433,  460,  817
  15, 1309, 1287,  614,  109
  16,  602,    4,  329,  604
  17,    8,  336,  172,  609
  18,   10,  583,  590,  337
  19,  701,  622,  472,  739
  20,  472,  457,  102,  437
** ... 1358 like lines cut
*Nset, nset=Part-1-1_Set-1, generate
    1,  1492,     1
*Elset, elset=Part-1-1_Set-1, generate
    1,  1378,     1
** Section: Section-1
*Solid Section, elset=Part-1-1_Set-1, material=Steel
,
*System
*Node
   1493,          -6.,           2.,           0.
*Node
   1494,           2.,          -6.,           0.
*Nset, nset=Set-5
1493,
*Nset, nset=Set-6
1494,
*Nset, nset=t_Set-1
  96,  97,  98,  99, 100, 101, 102, 103, 104, 105, 106, 107, 108, 431, 432, 433
 434, 435, 436, 437, 438, 439, 440, 441, 442, 443
*Elset, elset=t_Set-1
   7,   9,  20,  21,  26,  32,  33,  35,  36,  53, 345, 346, 347, 349, 351, 373
 569, 570, 572, 573, 574, 576, 580, 583, 584, 761
*Nset, nset=t_Set-3
  83,  84,  85,  86,  87,  88,  89,  90,  91,  92,  93,  94,  95, 418, 419, 420
 421, 422, 423, 424, 425, 426, 427, 428, 429, 430
*Elset, elset=t_Set-3
 178, 180, 197, 198, 201, 202, 210, 222, 223, 225, 232, 237, 335, 336, 340, 466
 563, 564, 565, 566, 567, 577, 578, 586, 589, 609
*Nset, nset=_PickedSet7
1493,
*Nset, nset=_PickedSet9
1494,
** Constraint: Constraint-1
*Rigid Body, ref node=_PickedSet7, tie nset=t_Set-1
** Constraint: Constraint-2
*Rigid Body, ref node=_PickedSet9, tie nset=t_Set-3
** 
** MATERIALS
** 
*Material, name=Steel
*Density
 0.28,
*Elastic
29000., 0.3
** ----------------------------------------------------------------
** 
** STEP: Step-1
** 
*Step, name=Step-1, nlgeom=NO, perturbation
*Static
** 
** BOUNDARY CONDITIONS
** 
** Name: BC-1 Type: Symmetry/Antisymmetry/Encastre
*Boundary
Set-6, ENCASTRE
** 
** LOADS
** 
** Name: Load-1   Type: Concentrated force
*Cload
Set-5, 2, -10.
** 
** OUTPUT REQUESTS
** 
** 
** FIELD OUTPUT: F-Output-1
** 
*Output, field, variable=PRESELECT
** 
** HISTORY OUTPUT: H-Output-1
** 
*Output, history, variable=PRESELECT
*End Step
